Version 4
SHEET 1 1732 680
WIRE 720 176 496 176
WIRE 784 176 720 176
WIRE 912 176 864 176
WIRE 1040 176 912 176
WIRE 1216 176 1040 176
WIRE 912 224 912 176
WIRE 912 224 784 224
WIRE 496 288 496 176
WIRE 1040 304 1040 176
WIRE 1216 304 1216 176
WIRE 1360 320 1328 320
WIRE 1728 320 1616 320
WIRE 720 352 720 272
WIRE 864 352 720 352
WIRE 976 352 944 352
WIRE 720 384 720 352
WIRE 1328 400 1328 320
WIRE 1328 400 1040 400
WIRE 496 528 496 368
WIRE 608 528 496 528
WIRE 720 528 720 464
WIRE 720 528 608 528
WIRE 1216 528 1216 384
WIRE 1216 528 720 528
WIRE 1488 528 1488 416
WIRE 1488 528 1216 528
WIRE 608 544 608 528
FLAG 608 544 0
DATAFLAG 1184 176 ""
DATAFLAG 736 352 ""
DATAFLAG 880 176 ""
DATAFLAG 640 176 ""
DATAFLAG 1072 400 ""
DATAFLAG 960 352 ""
DATAFLAG 720 528 ""
SYMBOL res 1200 288 R0
SYMATTR InstName R2
SYMATTR Value {R}
SYMBOL voltage 496 272 R0
WINDOW 123 0 0 Left 0
WINDOW 39 0 0 Left 0
WINDOW 3 22 -14 Left 2
SYMATTR Value 12.6
SYMATTR InstName V1
SYMBOL res 880 160 R90
WINDOW 0 -5 81 VBottom 2
WINDOW 3 -31 38 VTop 2
SYMATTR InstName R1
SYMATTR Value 0.4
SYMBOL pnp 784 272 R180
WINDOW 0 56 48 Left 2
WINDOW 3 -84 23 Left 2
SYMATTR InstName Q1
SYMATTR Value TIP42C
SYMBOL pnp 976 400 M180
WINDOW 0 -20 140 Left 2
WINDOW 3 -20 115 Left 2
SYMATTR InstName Q2
SYMATTR Value BD140
SYMBOL res 704 368 R0
SYMATTR InstName R3
SYMATTR Value 1k
SYMBOL res 960 336 R90
WINDOW 0 0 56 VBottom 2
WINDOW 3 32 56 VTop 2
SYMATTR InstName R4
SYMATTR Value 1k
SYMBOL sym\\ZZZ\\VolReg\\7805 1488 320 R0
SYMATTR InstName U1
TEXT 680 56 Left 2 ;Current Limiting Circuit @ 12.6v
TEXT 504 0 Left 2 !.inc TIP42C.LIB
TEXT 504 72 Left 2 !.op
TEXT 504 -48 Left 2 !.step param R 1 10 0.5
